LAMMPS (29 Oct 2020)

# ----------------- Init Section -----------------

include "system.in.init"
    units           real
    atom_style      full
    bond_style      harmonic
    angle_style     harmonic
    dihedral_style  charmm
    pair_style      lj/cut 11.0

    # If charges are needed, (assuming biopolymers), try one of:
    #dielectric      80.0
    #pair_style      lj/cut/coul/debye 0.1 11.0
    # or (for short distances, below a couple nm)
    #pair_style      lj/charmm/coul/charmm/implicit 9.0 11.0

    pair_modify     mix arithmetic
    special_bonds   lj 0.0 0.0 0.0

# ----------------- Atom Definition Section -----------------

read_data "system.data"
Reading data file ...
  orthogonal box = (0.0000000 0.0000000 0.0000000) to (180.00000 180.00000 180.00000)
  reading atoms ...
  243 atoms
  scanning bonds ...
  reading bonds ...
  216 bonds
Finding 1-2 1-3 1-4 neighbors ...
     2 = max # of 1-2 neighbors
     2 = max # of 1-3 neighbors
     4 = max # of 1-4 neighbors
     6 = max # of special neighbors

# ----------------- Settings Section -----------------

include "system.in.settings"
    pair_coeff  1  1      2.50 3.6
    pair_coeff  2  2      0.10 3.6
    bond_coeff     1   30.0   3.4
    bond_coeff     2   30.0   3.4
    bond_coeff     3   30.0   3.4

#  -- minimize --
minimize 1.0e-5 1.0e-7 1000 10000
  update every 1 steps, delay 0 steps, check yes
Step Temp E_pair E_mol TotEng Press
0            0            0    235929.86    235929.86   -2891.2743
Loop time of 0.021052 on 1 procs for 60 steps with 243 atoms

Minimization stats:
  Stopping criterion = force tolerance
  Energy initial, next-to-last, final =
  Force two-norm initial, final = 9659.0786 8.9187314e-09
  Force max component initial, final = 675.41836 1.0984776e-09
  Final line search alpha, max atom move = 1.0000000 1.0984776e-09
  Iterations, force evaluations = 60 92

timestep        2.0

dump 1 all custom 1000 dump.soft id type xs ys zs ix iy iz
dump m0 all movie 1000 movie.mpg type type size 640 480
# To use Langevin dynamics in LAMMPS you need both "fix langevin" and "fix nve".
# (See http://lammps.sandia.gov/doc/fix_langevin.html for details.)

fix fxlan all langevin 300.0 300.0 500.0 48279
fix fxnve all nve

thermo_style    custom step temp pe etotal press vol epair ebond eangle edihed
thermo          1000  # time interval for printing out "thermo" data

run		100000
Step Temp PotEng TotEng Press Volume E_pair E_bond E_angle E_dihed
60            0 5.0537702e-19 5.0537702e-19 4.9736532e-10      5832000            0 5.0537702e-19            0            0
Averages over the last 51 of 102 rows, steps 51000 to 100060:
Temp PotEng TotEng Press Volume E_pair E_bond E_angle E_dihed
302.912 16.8041 235.312 -0.0322789 5.832e+06 -47.7631 64.5672 0 0
Loop time of 20.7401 on 1 procs for 100000 steps with 243 atoms

write_data  system.data
System init for write_data ...
